@<TRIPOS>MOLECULE
x0072.pdb
 26 26 0 0 0
SMALL
GASTEIGER

@<TRIPOS>ATOM
      1  C01        6.5900   -5.0900   26.5460 C.3   1101  LIG1101     0.0705
      2  C06        9.4640   -3.1570   24.1330 C.3   1101  LIG1101     0.0210
      3  C07        9.3590   -1.8720   23.3230 C.3   1101  LIG1101    -0.0135
      4  C08       10.7550   -1.2710   23.3660 C.ar  1101  LIG1101    -0.0461
      5  C09       11.0670   -0.2310   24.2330 C.ar  1101  LIG1101    -0.0585
      6  C10       12.3580    0.2710   24.2540 C.ar  1101  LIG1101    -0.0615
      7  C11       13.3330   -0.2790   23.4380 C.ar  1101  LIG1101    -0.0617
      8  C12       13.0180   -1.3270   22.5820 C.ar  1101  LIG1101    -0.0615
      9  C13       11.7290   -1.8190   22.5550 C.ar  1101  LIG1101    -0.0585
     10  N05        8.2120   -3.6650   24.6320 N.3   1101  LIG1101    -0.1945
     11  O03        9.2350   -5.5840   26.1220 O.2   1101  LIG1101    -0.1585
     12  O04        8.8020   -3.6590   27.1680 O.2   1101  LIG1101    -0.1585
     13  S02        8.2500   -4.4980   26.1180 S.O2  1101  LIG1101     0.0265
     14 H           6.2145   -5.7029   25.7534 H     1101  LIG1101     0.0479
     15 H           5.9387   -4.2531   26.6889 H     1101  LIG1101     0.0479
     16 H           6.6374   -5.6632   27.4483 H     1101  LIG1101     0.0479
     17 H          10.1040   -2.9706   24.9700 H     1101  LIG1101     0.0444
     18 H           9.8445   -3.9016   23.4654 H     1101  LIG1101     0.0444
     19 H           9.0709   -2.0845   22.3146 H     1101  LIG1101     0.0326
     20 H           8.6200   -1.2057   23.7164 H     1101  LIG1101     0.0326
     21 H          10.3442    0.1635   24.8551 H     1101  LIG1101     0.0620
     22 H          12.5941    1.0572   24.8795 H     1101  LIG1101     0.0618
     23 H          14.2961    0.0908   23.4660 H     1101  LIG1101     0.0618
     24 H          13.7428   -1.7346   21.9708 H     1101  LIG1101     0.0618
     25 H          11.4916   -2.6011   21.9250 H     1101  LIG1101     0.0620
     26 H           7.8383   -4.3044   23.9307 H     1101  LIG1101     0.1476
@<TRIPOS>BOND
     1     9     8   ar
     2     9     4   ar
     3     8     7   ar
     4     3     4    1
     5     3     2    1
     6     4     5   ar
     7     7     6   ar
     8     2    10    1
     9     5     6   ar
    10    10    13    1
    11    13    11    2
    12    13     1    1
    13    13    12    2
    14     1    14    1
    15     1    15    1
    16     1    16    1
    17     2    17    1
    18     2    18    1
    19     3    19    1
    20     3    20    1
    21     5    21    1
    22     6    22    1
    23     7    23    1
    24     8    24    1
    25     9    25    1
    26    10    26    1
