@<TRIPOS>MOLECULE
x0104.pdb
 29 30 0 0 0
SMALL
GASTEIGER

@<TRIPOS>ATOM
      1  C01        9.6050    5.8020   22.8360 C.3   1101  LIG1101     0.0121
      2  C02       10.6890    5.9100   23.9030 C.2   1101  LIG1101     0.2099
      3  C05       12.5870    4.8490   22.5630 C.3   1101  LIG1101     0.0153
      4  C06       13.1730    3.4900   22.9310 C.3   1101  LIG1101    -0.0135
      5  C07       12.1510    2.4400   23.3960 C.2   1101  LIG1101    -0.0378
      6  C08       11.0220    2.6350   24.1770 C.3   1101  LIG1101     0.0623
      7  C10       11.1050    0.4790   23.6980 C.ar  1101  LIG1101     0.0661
      8  C11       10.8640   -0.9140   23.5750 C.ar  1101  LIG1101    -0.0334
      9  C12       11.7470   -1.7030   22.8410 C.ar  1101  LIG1101    -0.0244
     10  C13       12.8630   -1.1210   22.2290 C.ar  1101  LIG1101     0.1241
     11  C15       13.0960    0.2460   22.3560 C.ar  1101  LIG1101    -0.0173
     12  C16       12.1990    1.0560   23.1010 C.ar  1101  LIG1101     0.0037
     13  F14       13.7350   -1.8820   21.5090 F     1101  LIG1101    -0.2055
     14  N04       12.0670    5.4680   23.7610 N.am  1101  LIG1101    -0.3152
     15  N09       10.4160    1.4650   24.3400 N.2   1101  LIG1101    -0.2790
     16  O03       10.3910    6.3690   24.9350 O.2   1101  LIG1101    -0.2761
     17 H          10.0184    5.3666   21.9503 H     1101  LIG1101     0.0322
     18 H           9.2275    6.7776   22.6110 H     1101  LIG1101     0.0322
     19 H           8.8084    5.1860   23.1979 H     1101  LIG1101     0.0322
     20 H          11.7976    4.7204   21.8522 H     1101  LIG1101     0.0465
     21 H          13.3451    5.4687   22.1315 H     1101  LIG1101     0.0465
     22 H          13.8791    3.6372   23.7213 H     1101  LIG1101     0.0326
     23 H          13.6093    3.1024   22.0342 H     1101  LIG1101     0.0326
     24 H          10.3598    3.3198   23.6897 H     1101  LIG1101     0.0555
     25 H          11.2991    3.0403   25.1277 H     1101  LIG1101     0.0555
     26 H          10.0396   -1.3401   24.0265 H     1101  LIG1101     0.0640
     27 H          11.5781   -2.7169   22.7485 H     1101  LIG1101     0.0647
     28 H          13.9225    0.6713   21.9076 H     1101  LIG1101     0.0653
     29 H          12.6785    5.5973   24.5217 H     1101  LIG1101     0.1487
@<TRIPOS>BOND
     1    13    10    1
     2    10    11   ar
     3    10     9   ar
     4    11    12   ar
     5     3     4    1
     6     3    14    1
     7     1     2    1
     8     9     8   ar
     9     4     5    1
    10    12     5    2
    11    12     7   ar
    12     5     6    1
    13     8     7   ar
    14     7    15    2
    15    14     2   am
    16     2    16    2
    17     6    15    1
    18     1    17    1
    19     1    18    1
    20     1    19    1
    21     3    20    1
    22     3    21    1
    23     4    22    1
    24     4    23    1
    25     6    24    1
    26     6    25    1
    27     8    26    1
    28     9    27    1
    29    11    28    1
    30    14    29    1
