@<TRIPOS>MOLECULE
x0107.pdb
 21 21 0 0 0
SMALL
GASTEIGER

@<TRIPOS>ATOM
      1  C01        9.9140   -0.6710   22.5440 C.3   1101  LIG1101     0.0125
      2  C02        9.0200   -0.0530   21.4710 C.2   1101  LIG1101     0.2141
      3  C05        6.9240   -0.1160   20.0670 C.ar  1101  LIG1101     0.0546
      4  C06        7.3010   -0.1830   18.7320 C.ar  1101  LIG1101     0.0490
      5  C08        5.4180    0.9350   18.0620 C.ar  1101  LIG1101     0.0279
      6  C09        4.9600    1.0580   19.3670 C.ar  1101  LIG1101    -0.0389
      7  C10        5.7280    0.5160   20.3980 C.ar  1101  LIG1101    -0.0263
      8  C11        5.2810    0.6220   21.8540 C.3   1101  LIG1101    -0.0379
      9  N04        7.7750   -0.6990   21.0920 N.am  1101  LIG1101    -0.2843
     10  N07        6.5510    0.3330   17.7770 N.ar  1101  LIG1101    -0.2614
     11  O03        9.3460    0.9600   20.9550 O.2   1101  LIG1101    -0.2758
     12 H          10.7788   -0.0569   22.6848 H     1101  LIG1101     0.0323
     13 H          10.2178   -1.6494   22.2351 H     1101  LIG1101     0.0323
     14 H           9.3717   -0.7398   23.4639 H     1101  LIG1101     0.0323
     15 H           8.1880   -0.6470   18.4813 H     1101  LIG1101     0.0848
     16 H           4.8522    1.3277   17.2934 H     1101  LIG1101     0.0829
     17 H           4.0704    1.5401   19.5700 H     1101  LIG1101     0.0636
     18 H           4.3446    1.1374   21.9030 H     1101  LIG1101     0.0278
     19 H           6.0153    1.1624   22.4141 H     1101  LIG1101     0.0278
     20 H           5.1699   -0.3595   22.2653 H     1101  LIG1101     0.0278
     21 H           7.5056   -1.5374   21.5322 H     1101  LIG1101     0.1548
@<TRIPOS>BOND
     1    10     5   ar
     2    10     4   ar
     3     5     6   ar
     4     4     3   ar
     5     6     7   ar
     6     3     7   ar
     7     3     9    1
     8     7     8    1
     9    11     2    2
    10     9     2   am
    11     2     1    1
    12     1    12    1
    13     1    13    1
    14     1    14    1
    15     4    15    1
    16     5    16    1
    17     6    17    1
    18     8    18    1
    19     8    19    1
    20     8    20    1
    21     9    21    1
