@<TRIPOS>MOLECULE
x0161.pdb
 23 23 0 0 0
SMALL
GASTEIGER

@<TRIPOS>ATOM
      1  C01       14.0200   -2.5370   24.0740 C.3   1101  LIG1101     0.0820
      2  C03       13.6590   -0.3000   23.3020 C.2   1101  LIG1101     0.3389
      3  C05       12.9140    1.0290   23.4030 C.ar  1101  LIG1101     0.0591
      4  C06       11.7070    1.1060   24.0840 C.ar  1101  LIG1101    -0.0459
      5  C07       11.0440    2.3220   24.1790 C.ar  1101  LIG1101    -0.0346
      6  C08       11.5950    3.4540   23.5880 C.ar  1101  LIG1101     0.1050
      7  C09       12.8020    3.3740   22.9070 C.ar  1101  LIG1101    -0.0346
      8  C10       13.4590    2.1620   22.8190 C.ar  1101  LIG1101    -0.0459
      9  N14        9.3110    5.0410   22.7820 N.3   1101  LIG1101    -0.2035
     10  O02       13.5480   -1.2380   24.3380 O.3   1101  LIG1101    -0.4645
     11  O04       14.3390   -0.5160   22.3610 O.2   1101  LIG1101    -0.2450
     12  O12       11.6260    6.1470   23.2870 O.2   1101  LIG1101    -0.1533
     13  O13       10.4850    5.3790   25.1070 O.2   1101  LIG1101    -0.1533
     14  S11       10.7480    5.0490   23.7050 S.O2  1101  LIG1101     0.0559
     15 H          13.8784   -3.1506   24.9391 H     1101  LIG1101     0.0661
     16 H          15.0616   -2.4958   23.8326 H     1101  LIG1101     0.0661
     17 H          13.4790   -2.9524   23.2496 H     1101  LIG1101     0.0661
     18 H          11.3035    0.2614   24.5186 H     1101  LIG1101     0.0626
     19 H          10.1471    2.3856   24.6855 H     1101  LIG1101     0.0637
     20 H          13.2066    4.2160   22.4685 H     1101  LIG1101     0.0637
     21 H          14.3585    2.0998   22.3169 H     1101  LIG1101     0.0626
     22 H           9.5303    4.8081   21.8135 H     1101  LIG1101     0.1442
     23 H           8.8773    5.9634   22.8201 H     1101  LIG1101     0.1442
@<TRIPOS>BOND
     1    11     2    2
     2     9    14    1
     3     8     7   ar
     4     8     3   ar
     5     7     6   ar
     6    12    14    2
     7     2     3    1
     8     2    10    1
     9     3     4   ar
    10     6    14    1
    11     6     5   ar
    12    14    13    2
    13     1    10    1
    14     4     5   ar
    15     1    15    1
    16     1    16    1
    17     1    17    1
    18     4    18    1
    19     5    19    1
    20     7    20    1
    21     8    21    1
    22     9    22    1
    23     9    23    1
