@<TRIPOS>MOLECULE
x0195.pdb
 29 30 0 0 0
SMALL
GASTEIGER

@<TRIPOS>ATOM
      1  C01       10.7720   -0.4840   24.6580 C.3   801  LIG801      0.0007
      2  C03       12.5050   -1.6780   23.3560 C.3   801  LIG801      0.0122
      3  C04       13.4810   -1.5760   22.2220 C.3   801  LIG801     -0.0332
      4  C05       14.4540   -0.4360   22.4420 C.3   801  LIG801     -0.0245
      5  C06       13.7000    0.9040   22.7060 C.ar  801  LIG801     -0.0262
      6  C07       14.2540    2.1300   22.2900 C.ar  801  LIG801     -0.0550
      7  C08       13.5650    3.3230   22.5210 C.ar  801  LIG801     -0.0350
      8  C09       12.3140    3.2700   23.1670 C.ar  801  LIG801      0.1068
      9  C10       11.7610    2.0610   23.5740 C.ar  801  LIG801     -0.0140
     10  C11       12.4550    0.8590   23.3370 C.ar  801  LIG801      0.0345
     11  N02       11.8950   -0.4430   23.7520 N.pl3 801  LIG801     -0.3327
     12  N15       12.3680    6.1430   23.2090 N.3   801  LIG801     -0.2035
     13  O13       10.9220    4.7010   24.8790 O.2   801  LIG801     -0.1533
     14  O14       10.1250    4.8350   22.7670 O.2   801  LIG801     -0.1533
     15  S12       11.3910    4.7800   23.5010 S.O2  801  LIG801      0.0560
     16 H          10.4346    0.5125   24.8531 H     801  LIG801      0.0428
     17 H          11.0709   -0.9455   25.5759 H     801  LIG801      0.0428
     18 H           9.9781   -1.0494   24.2166 H     801  LIG801      0.0428
     19 H          13.0228   -2.0774   24.2029 H     801  LIG801      0.0464
     20 H          11.7094   -2.3023   23.0064 H     801  LIG801      0.0464
     21 H          14.0277   -2.4928   22.1477 H     801  LIG801      0.0283
     22 H          12.9364   -1.3892   21.3201 H     801  LIG801      0.0283
     23 H          15.0664   -0.3266   21.5715 H     801  LIG801      0.0314
     24 H          15.0541   -0.6623   23.2985 H     801  LIG801      0.0314
     25 H          15.1696    2.1471   21.8142 H     801  LIG801      0.0621
     26 H          13.9650    4.2267   22.2239 H     801  LIG801      0.0637
     27 H          10.8446    2.0447   24.0484 H     801  LIG801      0.0656
     28 H          12.6653    6.1455   22.2333 H     801  LIG801      0.1442
     29 H          13.1883    6.1093   23.8143 H     801  LIG801      0.1442
@<TRIPOS>BOND
     1     3     4    1
     2     3     2    1
     3     6     7   ar
     4     6     5   ar
     5     4     5    1
     6     7     8   ar
     7     5    10   ar
     8    14    15    2
     9     8    15    1
    10     8     9   ar
    11    12    15    1
    12    10     9   ar
    13    10    11    1
    14     2    11    1
    15    15    13    2
    16    11     1    1
    17     1    16    1
    18     1    17    1
    19     1    18    1
    20     2    19    1
    21     2    20    1
    22     3    21    1
    23     3    22    1
    24     4    23    1
    25     4    24    1
    26     6    25    1
    27     7    26    1
    28     9    27    1
    29    12    28    1
    30    12    29    1
