@<TRIPOS>MOLECULE
x0305.pdb
 20 20 0 0 0
SMALL
GASTEIGER

@<TRIPOS>ATOM
      1  C01        8.4730   -0.0980   27.4200 C.3   1101  LIG1101    -0.0496
      2  C02        9.0280   -0.6430   26.1230 C.3   1101  LIG1101     0.0076
      3  C04       10.9870   -0.2750   24.6110 C.ar  1101  LIG1101     0.1187
      4  C05       10.6330   -1.4060   23.8860 C.ar  1101  LIG1101    -0.0207
      5  C06       11.4200   -1.8170   22.8290 C.ar  1101  LIG1101    -0.0396
      6  C07       12.5500   -1.0820   22.5200 C.ar  1101  LIG1101     0.0699
      7  C08       13.4420   -1.5190   21.3660 C.1   1101  LIG1101     0.1007
      8  C10       12.8470    0.0410   23.2900 C.ar  1101  LIG1101     0.0470
      9  N03       10.1620    0.1630   25.7100 N.pl3 1101  LIG1101    -0.3293
     10  N09       14.1220   -1.8200   20.5080 N.1   1101  LIG1101    -0.1908
     11  N11       12.0680    0.4160   24.3030 N.ar  1101  LIG1101    -0.2392
     12 H           7.6366   -0.6905   27.7269 H     1101  LIG1101     0.0245
     13 H           8.1590    0.9147   27.2760 H     1101  LIG1101     0.0245
     14 H           9.2307   -0.1326   28.1747 H     1101  LIG1101     0.0245
     15 H           9.3426   -1.6556   26.2664 H     1101  LIG1101     0.0459
     16 H           8.2710   -0.6103   25.3675 H     1101  LIG1101     0.0459
     17 H           9.7845   -1.9371   24.1368 H     1101  LIG1101     0.0652
     18 H          11.1704   -2.6551   22.2809 H     1101  LIG1101     0.0632
     19 H          13.6898    0.5946   23.0702 H     1101  LIG1101     0.0843
     20 H          10.3672    1.0047   26.1777 H     1101  LIG1101     0.1474
@<TRIPOS>BOND
     1    10     7    3
     2     7     6    1
     3     6     5   ar
     4     6     8   ar
     5     5     4   ar
     6     8    11   ar
     7     4     3   ar
     8    11     3   ar
     9     3     9    1
    10     9     2    1
    11     2     1    1
    12     1    12    1
    13     1    13    1
    14     1    14    1
    15     2    15    1
    16     2    16    1
    17     4    17    1
    18     5    18    1
    19     8    19    1
    20     9    20    1
