@<TRIPOS>MOLECULE
x0354.pdb
 38 39 0 0 0
SMALL
GASTEIGER

@<TRIPOS>ATOM
      1  C1         5.9490    3.6580   30.9630 C.3   701  LIG701     -0.0126
      2  C10       11.7690   -2.5690   23.8910 C.ar  701  LIG701     -0.0554
      3  C11       12.3700   -1.3500   23.6340 C.ar  701  LIG701     -0.0502
      4  C12       13.6060   -1.2510   22.7780 C.3   701  LIG701     -0.0397
      5  C13       11.8000   -0.2230   24.1880 C.ar  701  LIG701     -0.0554
      6  C14       10.6640   -0.2980   24.9740 C.ar  701  LIG701     -0.0197
      7  C2         5.5960    1.4640   30.0410 C.3   701  LIG701      0.0145
      8  C3         5.6930    0.6130   28.7980 C.3   701  LIG701      0.0276
      9  C4         7.8230    1.7880   28.2960 C.3   701  LIG701      0.0276
     10  C5         7.5910    2.6260   29.5350 C.3   701  LIG701      0.0145
     11  C6         7.5770   -0.5890   27.7450 C.2   701  LIG701      0.2533
     12  C7         8.4260   -0.3920   26.5010 C.3   701  LIG701      0.1653
     13  C8        10.0730   -1.5310   25.2260 C.ar  701  LIG701      0.1212
     14  C9        10.6330   -2.6750   24.6790 C.ar  701  LIG701     -0.0197
     15  N1         6.1660    2.7880   29.8070 N.3   701  LIG701     -0.3024
     16  N2         7.0630    0.5330   28.2860 N.am  701  LIG701     -0.2963
     17  O1         7.3360   -1.7240   28.1580 O.2   701  LIG701     -0.2719
     18  O2         8.9490   -1.6170   26.0070 O.3   701  LIG701     -0.4828
     19 H           6.3740    4.6207   30.7696 H     701  LIG701      0.0391
     20 H           6.4156    3.2288   31.8250 H     701  LIG701      0.0391
     21 H           4.8987    3.7607   31.1399 H     701  LIG701      0.0391
     22 H          12.1781   -3.4247   23.4843 H     701  LIG701      0.0621
     23 H          13.8892   -2.2280   22.4461 H     701  LIG701      0.0278
     24 H          14.4029   -0.8238   23.3502 H     701  LIG701      0.0278
     25 H          13.4037   -0.6309   21.9298 H     701  LIG701      0.0278
     26 H          12.2310    0.6980   24.0121 H     701  LIG701      0.0621
     27 H          10.2552    0.5613   25.3733 H     701  LIG701      0.0654
     28 H           6.1307    0.9870   30.8356 H     701  LIG701      0.0442
     29 H           4.5642    1.5753   30.3016 H     701  LIG701      0.0442
     30 H           5.3538   -0.3750   29.0298 H     701  LIG701      0.0477
     31 H           5.0865    1.0664   28.0421 H     701  LIG701      0.0477
     32 H           7.5377    2.3632   27.4401 H     701  LIG701      0.0477
     33 H           8.8606    1.5270   28.2830 H     701  LIG701      0.0477
     34 H           8.0301    3.5910   29.3903 H     701  LIG701      0.0442
     35 H           8.0392    2.1271   30.3687 H     701  LIG701      0.0442
     36 H           7.8225    0.0566   25.7398 H     701  LIG701      0.0795
     37 H           9.2523    0.2349   26.7639 H     701  LIG701      0.0795
     38 H          10.2078   -3.5983   24.8569 H     701  LIG701      0.0654
@<TRIPOS>BOND
     1     4     3    1
     2     3     2   ar
     3     3     5   ar
     4     2    14   ar
     5     5     6   ar
     6    14    13   ar
     7     6    13   ar
     8    13    18    1
     9    18    12    1
    10    12    11    1
    11    11    17    2
    12    11    16   am
    13    16     9    1
    14    16     8    1
    15     9    10    1
    16     8     7    1
    17    10    15    1
    18    15     7    1
    19    15     1    1
    20     1    19    1
    21     1    20    1
    22     1    21    1
    23     2    22    1
    24     4    23    1
    25     4    24    1
    26     4    25    1
    27     5    26    1
    28     6    27    1
    29     7    28    1
    30     7    29    1
    31     8    30    1
    32     8    31    1
    33     9    32    1
    34     9    33    1
    35    10    34    1
    36    10    35    1
    37    12    36    1
    38    12    37    1
    39    14    38    1
