@<TRIPOS>MOLECULE
x0387.pdb
 28 29 0 0 0
SMALL
GASTEIGER

@<TRIPOS>ATOM
      1  C02        9.3330   -4.9600   26.4820 C.3   1101  LIG1101     0.0576
      2  C03       10.5690   -4.8110   25.7560 C.3   1101  LIG1101    -0.0140
      3  C04       10.8100   -3.4010   25.2070 C.3   1101  LIG1101     0.0016
      4  C06        9.8600   -1.6280   24.1990 C.3   1101  LIG1101     0.0245
      5  C07       11.2350   -1.2740   23.6150 C.ar  1101  LIG1101    -0.0264
      6  C08       12.1490   -0.1720   24.1440 C.ar  1101  LIG1101    -0.0503
      7  C09       13.3560   -0.1220   23.3700 C.ar  1101  LIG1101    -0.0240
      8  C11       11.8670   -1.9130   22.5000 C.ar  1101  LIG1101    -0.0199
      9  C12        8.4890   -2.9630   25.2840 C.3   1101  LIG1101     0.0016
     10  C13        8.2300   -4.4000   25.7450 C.3   1101  LIG1101    -0.0140
     11  N05        9.6990   -2.8170   24.4950 N.3   1101  LIG1101    -0.2980
     12  O01        9.4650   -4.3700   27.7520 O.3   1101  LIG1101    -0.3917
     13  S10       13.3110   -1.2460   22.2080 S.2   1101  LIG1101    -0.1048
     14 H           9.1213   -6.0009   26.6106 H     1101  LIG1101     0.0594
     15 H          11.3761   -5.0573   26.4139 H     1101  LIG1101     0.0302
     16 H          10.5089   -5.4637   24.9103 H     1101  LIG1101     0.0302
     17 H          11.0468   -2.7615   26.0315 H     1101  LIG1101     0.0427
     18 H          11.6023   -3.4932   24.4937 H     1101  LIG1101     0.0427
     19 H           9.1167   -1.3645   23.4759 H     1101  LIG1101     0.0476
     20 H           9.7807   -1.0830   25.1163 H     1101  LIG1101     0.0476
     21 H          11.9309    0.4461   24.9411 H     1101  LIG1101     0.0626
     22 H          14.1367    0.5336   23.5308 H     1101  LIG1101     0.0693
     23 H          11.4581   -2.6905   21.9585 H     1101  LIG1101     0.0696
     24 H           7.6577   -2.6424   24.6916 H     1101  LIG1101     0.0427
     25 H           8.6136   -2.3677   26.1644 H     1101  LIG1101     0.0427
     26 H           8.0517   -5.0081   24.8829 H     1101  LIG1101     0.0302
     27 H           7.3841   -4.3793   26.3999 H     1101  LIG1101     0.0302
     28 H           9.6574   -3.4247   27.6509 H     1101  LIG1101     0.2098
@<TRIPOS>BOND
     1    13     8   ar
     2    13     7   ar
     3     8     5   ar
     4     7     6   ar
     5     5     6   ar
     6     5     4    1
     7     4    11    1
     8    11     3    1
     9    11     9    1
    10     3     2    1
    11     9    10    1
    12    10     1    1
    13     2     1    1
    14     1    12    1
    15     1    14    1
    16     2    15    1
    17     2    16    1
    18     3    17    1
    19     3    18    1
    20     4    19    1
    21     4    20    1
    22     6    21    1
    23     7    22    1
    24     8    23    1
    25     9    24    1
    26     9    25    1
    27    10    26    1
    28    10    27    1
    29    12    28    1
