@<TRIPOS>MOLECULE
x0434.pdb
 27 28 0 0 0
SMALL
GASTEIGER

@<TRIPOS>ATOM
      1  C02        8.6390   -0.2390   21.3600 C.2   1101  LIG1101     0.3082
      2  C04       10.5660   -0.4930   22.8300 C.ar  1101  LIG1101     0.0348
      3  C05       10.6050    0.3380   23.9310 C.ar  1101  LIG1101    -0.0404
      4  C06       11.8110    0.8480   24.3440 C.ar  1101  LIG1101    -0.0600
      5  C07       12.9690    0.5330   23.6470 C.ar  1101  LIG1101    -0.0616
      6  C08       12.9220   -0.2980   22.5410 C.ar  1101  LIG1101    -0.0600
      7  C09       11.7090   -0.8080   22.1210 C.ar  1101  LIG1101    -0.0404
      8  C11        6.6490    0.0270   19.8680 C.ar  1101  LIG1101     0.0529
      9  C12        5.4450    0.6520   20.1520 C.ar  1101  LIG1101    -0.0375
     10  C13        4.8150    1.3120   19.1090 C.ar  1101  LIG1101    -0.0418
     11  C14        5.4060    1.2810   17.8510 C.ar  1101  LIG1101     0.0277
     12  C16        7.1890    0.0560   18.5940 C.ar  1101  LIG1101     0.0488
     13  N03        9.2790   -0.9690   22.4270 N.am  1101  LIG1101    -0.2692
     14  N10        7.3300   -0.6620   20.9310 N.am  1101  LIG1101    -0.2678
     15  N15        6.5550    0.6850   17.6400 N.ar  1101  LIG1101    -0.2614
     16  O01        9.1920    0.6790   20.8500 O.2   1101  LIG1101    -0.2522
     17 H           9.7376    0.5734   24.4382 H     1101  LIG1101     0.0636
     18 H          11.8563    1.4641   25.1707 H     1101  LIG1101     0.0618
     19 H          13.8735    0.9219   23.9561 H     1101  LIG1101     0.0618
     20 H          13.7884   -0.5352   22.0330 H     1101  LIG1101     0.0618
     21 H          11.6573   -1.4161   21.2888 H     1101  LIG1101     0.0636
     22 H           5.0355    0.6270   21.0989 H     1101  LIG1101     0.0637
     23 H           3.9272    1.8152   19.2626 H     1101  LIG1101     0.0633
     24 H           4.9269    1.7401   17.0606 H     1101  LIG1101     0.0829
     25 H           8.0859   -0.4157   18.3988 H     1101  LIG1101     0.0848
     26 H           8.8549   -1.7488   22.8527 H     1101  LIG1101     0.1564
     27 H           6.8977   -1.4300   21.3698 H     1101  LIG1101     0.1564
@<TRIPOS>BOND
     1    15    11   ar
     2    15    12   ar
     3    11    10   ar
     4    12     8   ar
     5    10     9   ar
     6     8     9   ar
     7     8    14    1
     8    16     1    2
     9    14     1   am
    10     1    13   am
    11     7     6   ar
    12     7     2   ar
    13    13     2    1
    14     6     5   ar
    15     2     3   ar
    16     5     4   ar
    17     3     4   ar
    18     3    17    1
    19     4    18    1
    20     5    19    1
    21     6    20    1
    22     7    21    1
    23     9    22    1
    24    10    23    1
    25    11    24    1
    26    12    25    1
    27    13    26    1
    28    14    27    1
