@<TRIPOS>MOLECULE
x0540.pdb
 39 40 0 0 0
SMALL
GASTEIGER

@<TRIPOS>ATOM
      1  C02        3.3660    2.2080   23.4360 C.2   1101  LIG1101     0.2999
      2  C04        5.6270    1.4350   22.5990 C.3   1101  LIG1101     0.0170
      3  C05        5.2800    0.2110   21.7560 C.3   1101  LIG1101    -0.0119
      4  C06        5.6920    0.3350   20.2900 C.ar  1101  LIG1101    -0.0430
      5  C07        6.7500   -0.4410   19.8130 C.ar  1101  LIG1101    -0.0404
      6  C08        7.1190   -0.3200   18.4800 C.ar  1101  LIG1101     0.0278
      7  C10        5.4580    1.2450   18.1040 C.ar  1101  LIG1101     0.0278
      8  C11        5.0200    1.2020   19.4240 C.ar  1101  LIG1101    -0.0404
      9  C13        1.1050    3.2090   24.0690 C.3   1101  LIG1101     0.0246
     10  C14        1.0150    4.6460   24.5900 C.3   1101  LIG1101    -0.0345
     11  C15       -0.2970    4.9040   25.3140 C.3   1101  LIG1101    -0.0514
     12  C16       -1.4780    4.6080   24.4000 C.3   1101  LIG1101    -0.0529
     13  C17       -1.4420    3.1800   23.8710 C.3   1101  LIG1101    -0.0514
     14  C18       -0.1000    2.8180   23.2260 C.3   1101  LIG1101    -0.0345
     15  N03        4.5010    2.3410   22.5380 N.am  1101  LIG1101    -0.2991
     16  N09        6.4810    0.5020   17.6780 N.ar  1101  LIG1101    -0.2632
     17  N12        2.2940    3.1640   23.2440 N.am  1101  LIG1101    -0.2966
     18  O01        3.3300    1.3580   24.2760 O.2   1101  LIG1101    -0.2529
     19 H           6.5009    1.9121   22.2072 H     1101  LIG1101     0.0466
     20 H           5.8261    1.1503   23.6110 H     1101  LIG1101     0.0466
     21 H           5.7765   -0.6391   22.1752 H     1101  LIG1101     0.0328
     22 H           4.2147    0.1127   21.7731 H     1101  LIG1101     0.0328
     23 H           7.2484   -1.0923   20.4394 H     1101  LIG1101     0.0635
     24 H           7.9036   -0.8823   18.1149 H     1101  LIG1101     0.0829
     25 H           4.9784    1.8687   17.4362 H     1101  LIG1101     0.0829
     26 H           4.2331    1.7850   19.7494 H     1101  LIG1101     0.0635
     27 H           1.1359    2.5258   24.8919 H     1101  LIG1101     0.0499
     28 H           1.0920    5.3198   23.7623 H     1101  LIG1101     0.0283
     29 H           1.8137    4.7978   25.2856 H     1101  LIG1101     0.0283
     30 H          -0.3529    4.2736   26.1768 H     1101  LIG1101     0.0266
     31 H          -0.3346    5.9328   25.6056 H     1101  LIG1101     0.0266
     32 H          -2.3850    4.7508   24.9494 H     1101  LIG1101     0.0265
     33 H          -1.4253    5.2732   23.5636 H     1101  LIG1101     0.0265
     34 H          -1.6216    2.5094   24.6852 H     1101  LIG1101     0.0266
     35 H          -2.1947    3.0980   23.1150 H     1101  LIG1101     0.0266
     36 H          -0.0310    3.3200   22.2836 H     1101  LIG1101     0.0283
     37 H          -0.0785    1.7533   23.1218 H     1101  LIG1101     0.0283
     38 H           4.5035    3.0657   21.8716 H     1101  LIG1101     0.1502
     39 H           2.3788    3.8182   22.5132 H     1101  LIG1101     0.1505
@<TRIPOS>BOND
     1    16     7   ar
     2    16     6   ar
     3     7     8   ar
     4     6     5   ar
     5     8     4   ar
     6     5     4   ar
     7     4     3    1
     8     3     2    1
     9    15     2    1
    10    15     1   am
    11    14    13    1
    12    14     9    1
    13    17     1   am
    14    17     9    1
    15     1    18    2
    16    13    12    1
    17     9    10    1
    18    12    11    1
    19    10    11    1
    20     2    19    1
    21     2    20    1
    22     3    21    1
    23     3    22    1
    24     5    23    1
    25     6    24    1
    26     7    25    1
    27     8    26    1
    28     9    27    1
    29    10    28    1
    30    10    29    1
    31    11    30    1
    32    11    31    1
    33    12    32    1
    34    12    33    1
    35    13    34    1
    36    13    35    1
    37    14    36    1
    38    14    37    1
    39    15    38    1
    40    17    39    1
