@<TRIPOS>MOLECULE
x0678.pdb
 34 35 0 0 0
SMALL
GASTEIGER

@<TRIPOS>ATOM
      1  C02        9.4620    0.1790   21.3990 C.2   1101  LIG1101     0.2175
      2  C03       10.0510   -0.3120   22.7150 C.3   1101  LIG1101     0.0271
      3  C04       11.5700   -0.2260   22.7370 C.3   1101  LIG1101    -0.0328
      4  C05       12.1880   -1.1720   21.7080 C.3   1101  LIG1101    -0.0498
      5  C06       13.4460   -1.8740   22.2130 C.3   1101  LIG1101    -0.0528
      6  C07       14.2900   -1.0480   23.1730 C.3   1101  LIG1101    -0.0530
      7  C08       13.4970   -0.3390   24.2650 C.3   1101  LIG1101    -0.0528
      8  C09       11.9940   -0.5570   24.1570 C.3   1101  LIG1101    -0.0498
      9  C11        7.5430    0.0720   19.8490 C.ar  1101  LIG1101     0.0517
     10  C12        6.2960    0.6690   20.0040 C.ar  1101  LIG1101    -0.0376
     11  C13        5.6620    1.1060   18.8460 C.ar  1101  LIG1101    -0.0418
     12  C14        6.3070    0.9290   17.6300 C.ar  1101  LIG1101     0.0277
     13  C16        8.1460   -0.0680   18.6140 C.ar  1101  LIG1101     0.0487
     14  N10        8.1920   -0.3690   21.0460 N.am  1101  LIG1101    -0.2842
     15  N15        7.5030    0.3630   17.5510 N.ar  1101  LIG1101    -0.2614
     16  O01       10.0000    0.9720   20.6940 O.2   1101  LIG1101    -0.2755
     17 H           9.7622   -1.3318   22.8618 H     1101  LIG1101     0.0361
     18 H           9.6767    0.3170   23.4955 H     1101  LIG1101     0.0361
     19 H          11.9139    0.7505   22.4666 H     1101  LIG1101     0.0305
     20 H          11.4631   -1.9163   21.4523 H     1101  LIG1101     0.0268
     21 H          12.4726   -0.5798   20.8634 H     1101  LIG1101     0.0268
     22 H          14.0513   -2.1240   21.3668 H     1101  LIG1101     0.0265
     23 H          13.1156   -2.7318   22.7606 H     1101  LIG1101     0.0265
     24 H          14.8126   -0.3068   22.6052 H     1101  LIG1101     0.0265
     25 H          14.9440   -1.7340   23.6695 H     1101  LIG1101     0.0265
     26 H          13.6933    0.7108   24.1998 H     1101  LIG1101     0.0265
     27 H          13.8101   -0.7508   25.2016 H     1101  LIG1101     0.0265
     28 H          11.7588   -1.5773   24.3772 H     1101  LIG1101     0.0268
     29 H          11.4776    0.0698   24.8536 H     1101  LIG1101     0.0268
     30 H           5.8623    0.7821   20.9336 H     1101  LIG1101     0.0637
     31 H           4.7324    1.5521   18.8899 H     1101  LIG1101     0.0633
     32 H           5.8432    1.2464   16.7644 H     1101  LIG1101     0.0829
     33 H           9.0790   -0.5006   18.5277 H     1101  LIG1101     0.0848
     34 H           7.7660   -1.0449   21.6213 H     1101  LIG1101     0.1548
@<TRIPOS>BOND
     1    15    12   ar
     2    15    13   ar
     3    12    11   ar
     4    13     9   ar
     5    11    10   ar
     6     9    10   ar
     7     9    14    1
     8    16     1    2
     9    14     1   am
    10     1     2    1
    11     4     5    1
    12     4     3    1
    13     5     6    1
    14     2     3    1
    15     3     8    1
    16     6     7    1
    17     8     7    1
    18     2    17    1
    19     2    18    1
    20     3    19    1
    21     4    20    1
    22     4    21    1
    23     5    22    1
    24     5    23    1
    25     6    24    1
    26     6    25    1
    27     7    26    1
    28     7    27    1
    29     8    28    1
    30     8    29    1
    31    10    30    1
    32    11    31    1
    33    12    32    1
    34    13    33    1
    35    14    34    1
