@<TRIPOS>MOLECULE
x0874.pdb
 26 27 0 0 0
SMALL
GASTEIGER

@<TRIPOS>ATOM
      1  C02        9.6720    1.8000   22.1790 C.2   1101  LIG1101     0.2142
      2  C04        9.2940    1.1390   23.5470 C.3   1101  LIG1101     0.0421
      3  C05        7.9700    1.0510   23.7080 C.3   1101  LIG1101    -0.0414
      4  C06        7.5690   -0.4550   23.2930 C.3   1101  LIG1101    -0.0518
      5  C07        8.9320   -1.1540   22.9450 C.3   1101  LIG1101    -0.0455
      6  C08        9.8620   -0.4260   23.6200 C.3   1101  LIG1101    -0.0043
      7  C09       11.2840   -0.5170   23.0130 C.ar  1101  LIG1101    -0.0366
      8  C10       12.2970    0.4000   23.3860 C.ar  1101  LIG1101    -0.0513
      9  C11       13.5470    0.1850   22.7540 C.ar  1101  LIG1101    -0.0241
     10  C13       11.6510   -1.5120   22.0850 C.ar  1101  LIG1101    -0.0209
     11  N01       10.4680    3.0350   22.1810 N.am  1101  LIG1101    -0.3291
     12  O03        9.3290    1.3030   21.1260 O.2   1101  LIG1101    -0.2757
     13  S12       13.3390   -1.2060   21.7110 S.2   1101  LIG1101    -0.1048
     14 H           9.7287    1.7595   24.3025 H     1101  LIG1101     0.0400
     15 H           7.7066    1.2379   24.7281 H     1101  LIG1101     0.0273
     16 H           7.4543    1.7723   23.1092 H     1101  LIG1101     0.0273
     17 H           7.0868   -0.9543   24.1073 H     1101  LIG1101     0.0266
     18 H           6.8831   -0.4778   22.4721 H     1101  LIG1101     0.0266
     19 H           9.1167   -1.1223   21.8915 H     1101  LIG1101     0.0271
     20 H           8.9437   -2.1884   23.2183 H     1101  LIG1101     0.0271
     21 H           9.9759   -0.7955   24.6177 H     1101  LIG1101     0.0356
     22 H          12.1377    1.1626   24.0629 H     1101  LIG1101     0.0626
     23 H          14.4086    0.7382   22.8828 H     1101  LIG1101     0.0693
     24 H          11.0533   -2.2627   21.7051 H     1101  LIG1101     0.0696
     25 H          10.7142    3.4633   21.3294 H     1101  LIG1101     0.1449
     26 H          10.7552    3.4342   23.0339 H     1101  LIG1101     0.1449
@<TRIPOS>BOND
     1    12     1    2
     2    13    10   ar
     3    13     9   ar
     4    10     7   ar
     5     1    11   am
     6     1     2    1
     7     9     8   ar
     8     5     4    1
     9     5     6    1
    10     7     8   ar
    11     7     6    1
    12     4     3    1
    13     2     6    1
    14     2     3    1
    15     2    14    1
    16     3    15    1
    17     3    16    1
    18     4    17    1
    19     4    18    1
    20     5    19    1
    21     5    20    1
    22     6    21    1
    23     8    22    1
    24     9    23    1
    25    10    24    1
    26    11    25    1
    27    11    26    1
