@<TRIPOS>MOLECULE
x0946.pdb
 17 17 0 0 0
SMALL
GASTEIGER

@<TRIPOS>ATOM
      1  N          9.5540    5.1040   22.9770 N.3   1101  LIG1101    -0.2035
      2  C         12.6390    1.0500   23.1170 C.ar  1101  LIG1101     0.0180
      3  O         10.4020    5.1620   25.2790 O.2   1101  LIG1101    -0.1533
      4  C1        11.4010    1.1190   23.7620 C.ar  1101  LIG1101    -0.0459
      5  C2        10.8610    2.3920   24.0270 C.ar  1101  LIG1101    -0.0343
      6  C3        11.5330    3.5790   23.6590 C.ar  1101  LIG1101     0.1051
      7  C4        12.7770    3.4460   23.0240 C.ar  1101  LIG1101    -0.0343
      8  C5        13.3360    2.1980   22.7540 C.ar  1101  LIG1101    -0.0459
      9  O1        11.7620    6.1130   23.4790 O.2   1101  LIG1101    -0.1533
     10  S         10.8740    5.1030   23.9510 S.O2  1101  LIG1101     0.0559
     11 BR         13.4370   -0.7020   22.6570 Br    1101  LIG1101    -0.0503
     12 H           9.8508    5.0620   22.0020 H     1101  LIG1101     0.1442
     13 H           9.0173    5.9573   23.1326 H     1101  LIG1101     0.1442
     14 H          10.8970    0.2612   24.0362 H     1101  LIG1101     0.0629
     15 H           9.9482    2.4600   24.5037 H     1101  LIG1101     0.0637
     16 H          13.2929    4.2964   22.7490 H     1101  LIG1101     0.0637
     17 H          14.2554    2.1265   22.2906 H     1101  LIG1101     0.0629
@<TRIPOS>BOND
     1    11     2    1
     2     8     7   ar
     3     8     2   ar
     4     1    10    1
     5     7     6   ar
     6     2     4   ar
     7     9    10    2
     8     6    10    1
     9     6     5   ar
    10     4     5   ar
    11    10     3    2
    12     1    12    1
    13     1    13    1
    14     4    14    1
    15     5    15    1
    16     7    16    1
    17     8    17    1
