@<TRIPOS>MOLECULE
x0967.pdb
 35 35 0 0 0
SMALL
GASTEIGER

@<TRIPOS>ATOM
      1  C1         7.7120    4.9760   22.5680 C.3   1101  LIG1101     0.0122
      2  C10        6.9510   -0.2240   20.1690 C.ar  1101  LIG1101    -0.0551
      3  C11        9.0430    0.4530   22.3300 C.2   1101  LIG1101     0.2344
      4  C12        9.9800   -1.7280   21.8820 C.3   1101  LIG1101     0.0744
      5  C13       11.3510   -1.5920   22.3760 C.1   1101  LIG1101    -0.0711
      6  C14       12.4580   -1.6420   22.8330 C.1   1101  LIG1101    -0.0221
      7  C2         7.2810    3.5960   22.9500 C.2   1101  LIG1101     0.2105
      8  C3         7.8660    1.2230   22.9140 C.3   1101  LIG1101     0.1033
      9  C4         6.5260    0.5830   22.5150 C.3   1101  LIG1101    -0.0007
     10  C5         6.2730    0.6260   21.0280 C.ar  1101  LIG1101    -0.0449
     11  C6         5.3860    1.5380   20.4750 C.ar  1101  LIG1101    -0.0551
     12  C7         5.1740    1.5990   19.1080 C.ar  1101  LIG1101    -0.0199
     13  C8         5.8630    0.7370   18.2730 C.ar  1101  LIG1101     0.1169
     14  C9         6.7550   -0.1720   18.8020 C.ar  1101  LIG1101    -0.0199
     15  N1         7.9910    2.5940   22.4400 N.am  1101  LIG1101    -0.3039
     16  N2         9.0960   -0.8440   22.6110 N.am  1101  LIG1101    -0.3029
     17  O1         6.3070    3.3850   23.6640 O.2   1101  LIG1101    -0.2761
     18  O2         5.7020    0.7840   16.9300 O.3   1101  LIG1101    -0.5068
     19  O3         9.8660    1.0170   21.6110 O.2   1101  LIG1101    -0.2737
     20 Br1        14.1800   -1.9250   23.6600 Br    1101  LIG1101     0.0106
     21 H           8.5797    4.9189   21.9445 H     1101  LIG1101     0.0322
     22 H           7.9433    5.5346   23.4508 H     1101  LIG1101     0.0322
     23 H           6.9214    5.4620   22.0353 H     1101  LIG1101     0.0322
     24 H           7.6163   -0.9103   20.5582 H     1101  LIG1101     0.0621
     25 H           9.6557   -2.7392   22.0133 H     1101  LIG1101     0.0599
     26 H           9.9555   -1.4683   20.8443 H     1101  LIG1101     0.0599
     27 H           7.8801    1.2011   23.9837 H     1101  LIG1101     0.0598
     28 H           6.5285   -0.4392   22.8312 H     1101  LIG1101     0.0336
     29 H           5.7486    1.1451   22.9888 H     1101  LIG1101     0.0336
     30 H           4.8736    2.1843   21.0952 H     1101  LIG1101     0.0621
     31 H           4.5075    2.2819   18.7150 H     1101  LIG1101     0.0654
     32 H           7.2741   -0.8108   18.1795 H     1101  LIG1101     0.0654
     33 H           8.6264    2.7868   21.7131 H     1101  LIG1101     0.1495
     34 H           8.5257   -1.2093   23.3255 H     1101  LIG1101     0.1497
     35 H           6.1770    0.1923   16.3802 H     1101  LIG1101     0.2921
@<TRIPOS>BOND
     1    18    13    1
     2    13    14   ar
     3    13    12   ar
     4    14     2   ar
     5    12    11   ar
     6     2    10   ar
     7    11    10   ar
     8    10     9    1
     9    19     3    2
    10     4     5    1
    11     4    16    1
    12     3    16   am
    13     3     8    1
    14     5     6    3
    15    15     8    1
    16    15     7   am
    17     9     8    1
    18     1     7    1
    19     6    20    1
    20     7    17    2
    21     1    21    1
    22     1    22    1
    23     1    23    1
    24     2    24    1
    25     4    25    1
    26     4    26    1
    27     8    27    1
    28     9    28    1
    29     9    29    1
    30    11    30    1
    31    12    31    1
    32    14    32    1
    33    15    33    1
    34    16    34    1
    35    18    35    1
