@<TRIPOS>MOLECULE
x0995.pdb
 12 12 0 0 0
SMALL
GASTEIGER

@<TRIPOS>ATOM
      1  N          3.7800    2.0820   19.5660 N.pl3 1101  LIG1101    -0.3556
      2  C          4.7450    1.2440   19.1570 C.ar  1101  LIG1101     0.0613
      3  C1         5.1850    0.1610   19.9600 C.ar  1101  LIG1101     0.0514
      4  C2         6.6240   -0.4910   18.2820 C.ar  1101  LIG1101     0.1160
      5  C3         5.3550    1.3690   17.8800 C.ar  1101  LIG1101     0.0514
      6  N1         6.1090   -0.7150   19.5380 N.ar  1101  LIG1101    -0.2419
      7  N2         6.2910    0.5120   17.4480 N.ar  1101  LIG1101    -0.2419
      8 H           3.4953    2.8252   18.9865 H     1101  LIG1101     0.1424
      9 H           3.3568    1.9536   20.4456 H     1101  LIG1101     0.1424
     10 H           4.7801    0.0428   20.9019 H     1101  LIG1101     0.0849
     11 H           7.3362   -1.1580   17.9459 H     1101  LIG1101     0.1047
     12 H           5.0679    2.1457   17.2642 H     1101  LIG1101     0.0849
@<TRIPOS>BOND
     1     7     5   ar
     2     7     4   ar
     3     5     2   ar
     4     4     6   ar
     5     2     1    1
     6     2     3   ar
     7     6     3   ar
     8     1     8    1
     9     1     9    1
    10     3    10    1
    11     4    11    1
    12     5    12    1
