@<TRIPOS>MOLECULE
x0991.pdb
 13 12 0 0 0
SMALL
GASTEIGER

@<TRIPOS>ATOM
      1  N         10.2030   -5.7270   25.1150 N.2   1101  LIG1101    -0.1041
      2  C          8.7570   -3.4860   23.3770 C.3   1101  LIG1101    -0.0543
      3  C1         8.1480   -4.7250   24.0340 C.3   1101  LIG1101     0.0471
      4  C2         9.0380   -5.1760   25.1930 C.2   1101  LIG1101     0.2758
      5  N1         8.5230   -4.9640   26.4620 N.pl3 1101  LIG1101    -0.2509
      6 H          10.6091   -5.8972   24.2344 H     1101  LIG1101     0.3629
      7 H           8.1347   -3.1700   22.5660 H     1101  LIG1101     0.0235
      8 H           9.7329   -3.7218   23.0069 H     1101  LIG1101     0.0235
      9 H           8.8297   -2.6991   24.0984 H     1101  LIG1101     0.0235
     10 H           8.0753   -5.5120   23.3127 H     1101  LIG1101     0.0384
     11 H           7.1720   -4.4896   24.4040 H     1101  LIG1101     0.0384
     12 H           7.6380   -4.5467   26.5707 H     1101  LIG1101     0.2881
     13 H           9.0422   -5.2307   27.2548 H     1101  LIG1101     0.2881
@<TRIPOS>BOND
     1     2     3    1
     2     3     4    1
     3     1     4    2
     4     4     5    1
     5     1     6    1
     6     2     7    1
     7     2     8    1
     8     2     9    1
     9     3    10    1
    10     3    11    1
    11     5    12    1
    12     5    13    1
