@<TRIPOS>MOLECULE
x1077.pdb
 28 29 0 0 0
SMALL
GASTEIGER

@<TRIPOS>ATOM
      1  N          9.9780    1.4800   21.3330 N.1   1101  LIG1101    -0.1893
      2  C          9.8370    0.5150   21.9430 C.1   1101  LIG1101     0.1191
      3  O          7.3700   -5.8530   25.4070 O.3   1101  LIG1101    -0.3782
      4  C1         9.6670   -0.6350   22.7340 C.ar  1101  LIG1101     0.1401
      5  C10        8.7780   -4.1340   26.4660 C.3   1101  LIG1101     0.0357
      6  C2         8.9630   -0.5320   23.9220 C.ar  1101  LIG1101    -0.0240
      7  C3         8.8900   -1.6410   24.7590 C.ar  1101  LIG1101    -0.0365
      8  C4         9.5270   -2.8480   24.4040 C.ar  1101  LIG1101     0.0482
      9  C5        10.1990   -2.8390   23.1360 C.ar  1101  LIG1101     0.0500
     10  C6         9.9640   -5.3500   24.6430 C.3   1101  LIG1101     0.0144
     11  C7         8.9750   -5.8560   23.5870 C.3   1101  LIG1101    -0.0137
     12  C8         7.5100   -5.6370   24.0070 C.3   1101  LIG1101     0.0492
     13  C9         7.3610   -4.7240   26.2460 C.3   1101  LIG1101     0.0633
     14  N1        10.2800   -1.7800   22.3120 N.ar  1101  LIG1101    -0.2428
     15  N2         9.6050   -4.0300   25.2320 N.pl3 1101  LIG1101    -0.3265
     16 H           8.6705   -3.1529   26.8793 H     1101  LIG1101     0.0486
     17 H           9.2901   -4.8104   27.1180 H     1101  LIG1101     0.0486
     18 H           8.5001    0.3529   24.1823 H     1101  LIG1101     0.0646
     19 H           8.3660   -1.5799   25.6459 H     1101  LIG1101     0.0637
     20 H          10.6556   -3.7136   22.8332 H     1101  LIG1101     0.0849
     21 H          10.9276   -5.2628   24.1860 H     1101  LIG1101     0.0464
     22 H           9.9482   -6.0590   25.4442 H     1101  LIG1101     0.0464
     23 H           9.1523   -5.3328   22.6706 H     1101  LIG1101     0.0302
     24 H           9.1289   -6.9086   23.4717 H     1101  LIG1101     0.0302
     25 H           6.8827   -6.3234   23.4776 H     1101  LIG1101     0.0560
     26 H           7.2234   -4.6325   23.7751 H     1101  LIG1101     0.0560
     27 H           6.9558   -5.0057   27.1954 H     1101  LIG1101     0.0575
     28 H           6.7666   -3.9717   25.7710 H     1101  LIG1101     0.0575
@<TRIPOS>BOND
     1     1     2    3
     2     2     4    1
     3    14     4   ar
     4    14     9   ar
     5     4     6   ar
     6     9     8   ar
     7    11    12    1
     8    11    10    1
     9     6     7   ar
    10    12     3    1
    11     8     7   ar
    12     8    15    1
    13    10    15    1
    14    15     5    1
    15     3    13    1
    16    13     5    1
    17     5    16    1
    18     5    17    1
    19     6    18    1
    20     7    19    1
    21     9    20    1
    22    10    21    1
    23    10    22    1
    24    11    23    1
    25    11    24    1
    26    12    25    1
    27    12    26    1
    28    13    27    1
    29    13    28    1
