@<TRIPOS>MOLECULE
x1093.pdb
 37 39 0 0 0
SMALL
GASTEIGER

@<TRIPOS>ATOM
      1  C1        13.8630   -1.3540   23.5770 C.3   1101  LIG1101    -0.0126
      2  C10        5.8880    0.7990   18.7560 C.2   1101  LIG1101     0.3518
      3  C11        4.0960    1.8680   19.6250 C.2   1101  LIG1101     0.1405
      4  C12        4.4630    1.5430   20.9280 C.2   1101  LIG1101    -0.0212
      5  C13        5.6120    0.8120   21.1430 C.2   1101  LIG1101    -0.0616
      6  C14        6.3570    0.4150   20.0270 C.3   1101  LIG1101     0.1119
      7  C2        11.5960   -1.9060   22.9700 C.3   1101  LIG1101     0.0145
      8  C3        10.1450   -1.5150   23.1150 C.3   1101  LIG1101     0.0275
      9  C4        10.7980    0.8020   23.3390 C.3   1101  LIG1101     0.0275
     10  C5        12.2470    0.3960   23.2120 C.3   1101  LIG1101     0.0145
     11  C6         9.2010    0.1820   21.5600 C.2   1101  LIG1101     0.2198
     12  C7         8.4340   -0.9280   20.8580 C.3   1101  LIG1101     0.0502
     13  C8         7.5590   -0.3320   19.8070 C.2   1101  LIG1101     0.0010
     14  C9         7.7660   -0.3530   18.4600 C.2   1101  LIG1101     0.1416
     15  N1        12.4570   -0.9710   23.6990 N.3   1101  LIG1101    -0.3024
     16  N2         9.9630   -0.1540   22.6160 N.am  1101  LIG1101    -0.2988
     17  N3         6.7630    0.3290   17.8230 N.2   1101  LIG1101    -0.0475
     18  N4         4.7820    1.5220   18.5280 N.2   1101  LIG1101    -0.0476
     19  O1         9.1350    1.3380   21.1480 O.2   1101  LIG1101    -0.2753
     20 H          13.9931   -2.3530   23.9374 H     1101  LIG1101     0.0391
     21 H          14.4663   -0.6851   24.1545 H     1101  LIG1101     0.0391
     22 H          14.1584   -1.3041   22.5498 H     1101  LIG1101     0.0391
     23 H           3.2313    2.4161   19.4948 H     1101  LIG1101     0.1126
     24 H           3.8811    1.8461   21.7246 H     1101  LIG1101     0.0652
     25 H           5.9136    0.5650   22.0985 H     1101  LIG1101     0.0585
     26 H           6.4639    0.2729   21.0821 H     1101  LIG1101     0.0516
     27 H          11.8617   -1.8938   21.9336 H     1101  LIG1101     0.0442
     28 H          11.7312   -2.8871   23.3750 H     1101  LIG1101     0.0442
     29 H           9.5346   -2.1881   22.5500 H     1101  LIG1101     0.0477
     30 H           9.8610   -1.5614   24.1456 H     1101  LIG1101     0.0477
     31 H          10.5186    0.8109   24.3718 H     1101  LIG1101     0.0477
     32 H          10.6625    1.7798   22.9262 H     1101  LIG1101     0.0477
     33 H          12.8498    1.0680   23.7864 H     1101  LIG1101     0.0442
     34 H          12.5213    0.4344   22.1785 H     1101  LIG1101     0.0442
     35 H           9.1243   -1.6087   20.4051 H     1101  LIG1101     0.0405
     36 H           7.8329   -1.4547   21.5695 H     1101  LIG1101     0.0405
     37 H           8.5604   -0.8142   17.9897 H     1101  LIG1101     0.1127
@<TRIPOS>BOND
     1    17    14    1
     2    17     2    2
     3    14    13    2
     4    18     2    1
     5    18     3    2
     6     2     6    1
     7     3     4    1
     8    13     6    1
     9    13    12    1
    10     6     5    1
    11    12    11    1
    12     4     5    2
    13    19    11    2
    14    11    16   am
    15    16     8    1
    16    16     9    1
    17     7     8    1
    18     7    15    1
    19    10     9    1
    20    10    15    1
    21     1    15    1
    22     1    20    1
    23     1    21    1
    24     1    22    1
    25     3    23    1
    26     4    24    1
    27     5    25    1
    28     6    26    1
    29     7    27    1
    30     7    28    1
    31     8    29    1
    32     8    30    1
    33     9    31    1
    34     9    32    1
    35    10    33    1
    36    10    34    1
    37    12    35    1
    38    12    36    1
    39    14    37    1
