@<TRIPOS>MOLECULE
x1249.pdb
 33 34 0 0 0
SMALL
GASTEIGER

@<TRIPOS>ATOM
      1  N          8.5480    0.6090   24.9100 N.am  1101  LIG1101    -0.2951
      2  C          7.8020    1.3710   24.0090 C.2   1101  LIG1101     0.3026
      3  O          8.2740    2.3700   23.4420 O.2   1101  LIG1101    -0.2526
      4  C1         9.9330    0.9400   25.2340 C.3   1101  LIG1101     0.0383
      5  C10        4.1460    0.2620   24.7280 C.3   1101  LIG1101     0.0635
      6  C11        4.3140    0.9600   22.4570 C.3   1101  LIG1101     0.0635
      7  C12        5.7100    1.5670   22.7000 C.3   1101  LIG1101     0.0396
      8  C2        10.8510    0.3180   24.2200 C.ar  1101  LIG1101    -0.0302
      9  C3        12.0140    0.9790   23.8340 C.ar  1101  LIG1101    -0.0559
     10  C4        12.8610    0.4010   22.8910 C.ar  1101  LIG1101    -0.0440
     11  C5        12.5240   -0.8340   22.3280 C.ar  1101  LIG1101     0.0518
     12  C6        13.3600   -1.4060   21.3430 C.1   1101  LIG1101     0.0992
     13  C7        11.3650   -1.5030   22.7140 C.ar  1101  LIG1101    -0.0440
     14  C8        10.5300   -0.9260   23.6620 C.ar  1101  LIG1101    -0.0559
     15  C9         5.5790    0.7590   25.0280 C.3   1101  LIG1101     0.0396
     16  N1        14.0610   -1.8410   20.5400 N.1   1101  LIG1101    -0.1909
     17  N2         6.4320    0.8740   23.8000 N.am  1101  LIG1101    -0.2813
     18  O1         3.5710    0.9920   23.6590 O.3   1101  LIG1101    -0.3767
     19 H           8.1293   -0.1723   25.3384 H     1101  LIG1101     0.1506
     20 H          10.0572    2.0027   25.2221 H     1101  LIG1101     0.0512
     21 H          10.1702    0.5623   26.2066 H     1101  LIG1101     0.0512
     22 H           4.1827   -0.7744   24.4646 H     1101  LIG1101     0.0575
     23 H           3.5449    0.4047   25.6016 H     1101  LIG1101     0.0575
     24 H           4.4177   -0.0531   22.1286 H     1101  LIG1101     0.0575
     25 H           3.8038    1.5274   21.7069 H     1101  LIG1101     0.0575
     26 H           5.5983    2.5998   22.9563 H     1101  LIG1101     0.0488
     27 H           6.2824    1.4519   21.8033 H     1101  LIG1101     0.0488
     28 H          12.2483    1.8958   24.2459 H     1101  LIG1101     0.0621
     29 H          13.7305    0.8805   22.6100 H     1101  LIG1101     0.0630
     30 H          11.1291   -2.4183   22.2997 H     1101  LIG1101     0.0630
     31 H           9.6703   -1.4153   23.9562 H     1101  LIG1101     0.0621
     32 H           5.5155    1.7222   25.4897 H     1101  LIG1101     0.0488
     33 H           6.0392    0.0364   25.6691 H     1101  LIG1101     0.0488
@<TRIPOS>BOND
     1    16    12    3
     2    12    11    1
     3    11    13   ar
     4    11    10   ar
     5     6     7    1
     6     6    18    1
     7     7    17    1
     8    13    14   ar
     9    10     9   ar
    10     3     2    2
    11    18     5    1
    12    14     8   ar
    13    17     2   am
    14    17    15    1
    15     9     8   ar
    16     2     1   am
    17     8     4    1
    18     5    15    1
    19     1     4    1
    20     1    19    1
    21     4    20    1
    22     4    21    1
    23     5    22    1
    24     5    23    1
    25     6    24    1
    26     6    25    1
    27     7    26    1
    28     7    27    1
    29     9    28    1
    30    10    29    1
    31    13    30    1
    32    14    31    1
    33    15    32    1
    34    15    33    1
